goiania_leste_dss/TR1/CTMT_5002188.dss
! ==============================================================================
! ALIMENTADOR CTMT_5002188 - GOIANIA LESTE-12
! Subestacao: Trafo TR1 (GOL-S-TRF-TR1) | Barra MT: 1783 -> PAC_INI: 85862715002188
! ==============================================================================

! 1. Disjuntor de Saida MT do Alimentador
new line.DJ_5002188 phases=3 bus1=1783 bus2=85862715002188 switch=y r1=1e-4 x1=1e-4 length=0.001 units=km

! 2. Linhas de Media Tensao (MT)
new line.52681792 phases=1 bus1=78864605002188.1 bus2=78864595002188.1 r1=1.551 x1=0.47 length=0.105392 units=km normamps=125.0
new line.52681793 phases=1 bus1=78864595002188.1 bus2=78864585002188.1 r1=1.551 x1=0.47 length=0.063396 units=km normamps=125.0
new line.52681794 phases=1 bus1=78864615002188.1 bus2=78864605002188.1 r1=1.551 x1=0.47 length=0.100205 units=km normamps=125.0
new line.52681795 phases=1 bus1=78864625002188.1 bus2=78864615002188.1 r1=1.551 x1=0.47 length=0.125236 units=km normamps=125.0
new line.52681796 phases=1 bus1=78864635002188.1 bus2=78864625002188.1 r1=1.551 x1=0.47 length=0.007209 units=km normamps=125.0
new line.52681797 phases=1 bus1=78864645002188.1 bus2=78864585002188B.1 r1=2.469 x1=0.49 length=0.200117 units=km normamps=105.0
new line.52681798 phases=1 bus1=78864655002188.1 bus2=78864645002188.1 r1=2.469 x1=0.49 length=0.253259 units=km normamps=105.0
new line.52681799 phases=1 bus1=78864665002188.1 bus2=78864655002188.1 r1=2.469 x1=0.49 length=0.157273 units=km normamps=105.0
new line.52681800 phases=1 bus1=78864675002188.1 bus2=78864665002188.1 r1=2.469 x1=0.49 length=0.184364 units=km normamps=105.0
new line.53092615 phases=1 bus1=82234965002188.3 bus2=82234975002188.3 r1=1.551 x1=0.47 length=0.125914 units=km normamps=125.0
new line.53092616 phases=1 bus1=82234975002188.3 bus2=82234985002188.3 r1=1.551 x1=0.47 length=0.126531 units=km normamps=125.0
new line.53092617 phases=1 bus1=82234985002188.3 bus2=82234995002188.3 r1=1.551 x1=0.47 length=0.124733 units=km normamps=125.0
new line.53092618 phases=1 bus1=82234995002188.3 bus2=82235005002188.3 r1=1.551 x1=0.47 length=0.100047 units=km normamps=125.0
new line.53092619 phases=3 bus1=82183905002188.1.2.3 bus2=82183915002188.1.2.3 r1=0.975 x1=0.47 length=0.022129 units=km normamps=152.0
new line.53092620 phases=3 bus1=82183915002188.1.2.3 bus2=82183925002188.1.2.3 r1=0.975 x1=0.47 length=0.01959 units=km normamps=152.0
new line.53092621 phases=3 bus1=82183995002188.1.2.3 bus2=82183925002188.1.2.3 r1=0.975 x1=0.47 length=0.035095 units=km normamps=152.0
new line.53092622 phases=3 bus1=82184005002188.1.2.3 bus2=82183995002188.1.2.3 r1=0.975 x1=0.47 length=0.040927 units=km normamps=152.0
new line.53092623 phases=3 bus1=82184005002188.1.2.3 bus2=82184025002188.1.2.3 r1=0.975 x1=0.47 length=0.007957 units=km normamps=152.0
new line.53092624 phases=3 bus1=82184025002188.1.2.3 bus2=82184015002188.1.2.3 r1=0.975 x1=0.47 length=0.015417 units=km normamps=152.0
new line.53092625 phases=3 bus1=82184035002188.1.2.3 bus2=82184025002188.1.2.3 r1=0.975 x1=0.47 length=0.008563 units=km normamps=152.0
new line.53092626 phases=3 bus1=82184025002188.1.2.3 bus2=82184045002188.1.2.3 r1=0.975 x1=0.47 length=0.03096 units=km normamps=152.0
new line.53092627 phases=3 bus1=82184095002188.1.2.3 bus2=82184105002188.1.2.3 r1=0.975 x1=0.47 length=0.040918 units=km normamps=152.0
new line.53092628 phases=3 bus1=82184115002188.1.2.3 bus2=82184105002188.1.2.3 r1=0.975 x1=0.47 length=0.039511 units=km normamps=152.0
new line.53092629 phases=3 bus1=82184125002188.1.2.3 bus2=82184115002188.1.2.3 r1=0.975 x1=0.47 length=0.031501 units=km normamps=152.0
new line.53092630 phases=3 bus1=82184035002188.1.2.3 bus2=82184125002188.1.2.3 r1=0.975 x1=0.47 length=0.030666 units=km normamps=152.0
new line.53092631 phases=3 bus1=82184285002188.1.2.3 bus2=82184315002188.1.2.3 r1=0.195 x1=0.4 length=0.024584 units=km normamps=419.0
new line.53092632 phases=3 bus1=82184315002188.1.2.3 bus2=82184325002188.1.2.3 r1=0.195 x1=0.4 length=0.019536 units=km normamps=419.0
new line.53092633 phases=3 bus1=82184365002188.1.2.3 bus2=90036095002188.1.2.3 r1=0.195 x1=0.4 length=0.015706 units=km normamps=419.0
new line.53092634 phases=3 bus1=82184375002188.1.2.3 bus2=93776465002188.1.2.3 r1=0.195 x1=0.4 length=0.006952 units=km normamps=419.0
new line.53092635 phases=3 bus1=82184385002188.1.2.3 bus2=82184395002188.1.2.3 r1=0.195 x1=0.4 length=0.031558 units=km normamps=419.0
new line.53092636 phases=3 bus1=82184395002188.1.2.3 bus2=82184405002188.1.2.3 r1=0.195 x1=0.4 length=0.035259 units=km normamps=419.0
new line.53092637 phases=3 bus1=82184405002188.1.2.3 bus2=82184445002188.1.2.3 r1=0.195 x1=0.4 length=0.03732 units=km normamps=419.0
new line.53092638 phases=3 bus1=82184445002188.1.2.3 bus2=82184455002188.1.2.3 r1=0.195 x1=0.4 length=0.0377 units=km normamps=419.0
new line.53092639 phases=3 bus1=82184455002188.1.2.3 bus2=82184465002188.1.2.3 r1=0.195 x1=0.4 length=0.034495 units=km normamps=419.0
new line.53092640 phases=3 bus1=82184465002188.1.2.3 bus2=82184475002188.1.2.3 r1=0.195 x1=0.4 length=0.034485 units=km normamps=419.0
new line.53092641 phases=3 bus1=82184475002188.1.2.3 bus2=82184485002188.1.2.3 r1=0.195 x1=0.4 length=0.033729 units=km normamps=419.0
new line.53092642 phases=3 bus1=82184325002188.1.2.3 bus2=82184645002188.1.2.3 r1=0.195 x1=0.4 length=0.031814 units=km normamps=419.0
new line.53092643 phases=3 bus1=82184665002188.1.2.3 bus2=82184645002188.1.2.3 r1=0.195 x1=0.4 length=0.027469 units=km normamps=419.0
new line.53092644 phases=3 bus1=82184665002188B.1.2.3 bus2=82184675002188.1.2.3 r1=0.195 x1=0.4 length=0.010071 units=km normamps=419.0
new line.53092645 phases=3 bus1=82184685002188.1.2.3 bus2=82184725002188.1.2.3 r1=0.195 x1=0.4 length=0.021732 units=km normamps=419.0
new line.53092646 phases=3 bus1=82184725002188.1.2.3 bus2=82184735002188.1.2.3 r1=0.195 x1=0.4 length=0.024584 units=km normamps=419.0
new line.53092647 phases=3 bus1=82184815002188.1.2.3 bus2=82184825002188.1.2.3 r1=0.195 x1=0.4 length=0.045958 units=km normamps=419.0
new line.53092648 phases=3 bus1=82184835002188.1.2.3 bus2=82184815002188.1.2.3 r1=0.195 x1=0.4 length=0.053653 units=km normamps=419.0
new line.53092649 phases=3 bus1=82184855002188.1.2.3 bus2=82184735002188.1.2.3 r1=0.195 x1=0.4 length=0.041955 units=km normamps=419.0
new line.53092650 phases=3 bus1=82184865002188.1.2.3 bus2=82184875002188.1.2.3 r1=1.551 x1=0.49 length=0.03543 units=km normamps=114.0
new line.53092651 phases=3 bus1=82183145002188.1.2.3 bus2=82184885002188.1.2.3 r1=1.551 x1=0.49 length=0.063942 units=km normamps=114.0
new line.53092652 phases=3 bus1=82184885002188.1.2.3 bus2=82184895002188.1.2.3 r1=1.551 x1=0.49 length=0.02603 units=km normamps=114.0
new line.53092653 phases=3 bus1=82184895002188.1.2.3 bus2=82184875002188.1.2.3 r1=1.551 x1=0.49 length=0.024584 units=km normamps=114.0
new line.53092654 phases=3 bus1=82184665002188.1.2.3 bus2=82184685002188.1.2.3 r1=0.195 x1=0.4 length=0.038329 units=km normamps=419.0
new line.53092655 phases=3 bus1=82184935002188.1.2.3 bus2=82184855002188B.1.2.3 r1=1.551 x1=0.49 length=0.022074 units=km normamps=114.0
new line.53092656 phases=3 bus1=82184865002188.1.2.3 bus2=82184935002188.1.2.3 r1=1.551 x1=0.49 length=0.026756 units=km normamps=114.0
new line.53092657 phases=3 bus1=82184825002188.1.2.3 bus2=82184975002188.1.2.3 r1=0.195 x1=0.4 length=0.028208 units=km normamps=419.0
new line.53092658 phases=3 bus1=82184845002188.1.2.3 bus2=82184855002188.1.2.3 r1=0.195 x1=0.4 length=0.044829 units=km normamps=419.0
new line.53092659 phases=3 bus1=82184975002188.1.2.3 bus2=82184985002188.1.2.3 r1=0.195 x1=0.4 length=0.02971 units=km normamps=419.0
new line.53092660 phases=3 bus1=82184985002188.1.2.3 bus2=82184845002188.1.2.3 r1=0.195 x1=0.4 length=0.041937 units=km normamps=419.0
new line.53092661 phases=3 bus1=82184985002188B.1.2.3 bus2=82184945002188.1.2.3 r1=0.975 x1=0.47 length=0.02607 units=km normamps=152.0
new line.53092662 phases=3 bus1=82184945002188.1.2.3 bus2=82185005002188.1.2.3 r1=0.975 x1=0.47 length=0.037592 units=km normamps=152.0
new line.53092663 phases=3 bus1=82185005002188.1.2.3 bus2=82185015002188.1.2.3 r1=0.975 x1=0.47 length=0.036707 units=km normamps=152.0
new line.53092664 phases=3 bus1=82184675002188.1.2.3 bus2=82185055002188.1.2.3 r1=0.975 x1=0.47 length=0.049881 units=km normamps=152.0
new line.53092665 phases=3 bus1=82185055002188.1.2.3 bus2=82185065002188.1.2.3 r1=0.975 x1=0.47 length=0.039045 units=km normamps=152.0
new line.53092666 phases=3 bus1=82182325002188.1.2.3 bus2=82182815002188.1.2.3 r1=0.195 x1=0.4 length=0.033372 units=km normamps=419.0
new line.53092667 phases=3 bus1=82182815002188.1.2.3 bus2=82182825002188.1.2.3 r1=0.195 x1=0.4 length=0.032102 units=km normamps=419.0
new line.53092668 phases=3 bus1=82182825002188.1.2.3 bus2=93630945002188.1.2.3 r1=0.195 x1=0.4 length=0.006535 units=km normamps=419.0
new line.53092669 phases=3 bus1=80500905002188.1.2.3 bus2=80500895002188.1.2.3 r1=0.188 x1=0.26 length=0.014615 units=km normamps=525.0
new line.53092670 phases=1 bus1=82193385002188.3 bus2=82198635002188.3 r1=1.551 x1=0.47 length=0.116776 units=km normamps=125.0
new line.53092671 phases=1 bus1=82198635002188.3 bus2=82198645002188.3 r1=1.551 x1=0.47 length=0.071918 units=km normamps=125.0
new line.53092672 phases=1 bus1=82198655002188.3 bus2=82198665002188.3 r1=1.551 x1=0.47 length=0.136137 units=km normamps=125.0
new line.53092674 phases=1 bus1=82198645002188.3 bus2=82198685002188.3 r1=1.551 x1=0.47 length=0.035906 units=km normamps=125.0
new line.53092675 phases=1 bus1=82198685002188.3 bus2=82198655002188.3 r1=1.551 x1=0.47 length=0.071982 units=km normamps=125.0
new line.53092676 phases=1 bus1=82198685002188.3 bus2=82198695002188.3 r1=1.551 x1=0.47 length=0.034996 units=km normamps=125.0
new line.53092677 phases=1 bus1=82198695002188.3 bus2=82198705002188.3 r1=1.551 x1=0.47 length=0.012271 units=km normamps=125.0
new line.53092678 phases=3 bus1=82182255002188.1.2.3 bus2=82182265002188.1.2.3 r1=0.195 x1=0.4 length=0.013292 units=km normamps=419.0
new line.53092679 phases=3 bus1=82182265002188.1.2.3 bus2=94552485002188.1.2.3 r1=0.195 x1=0.4 length=0.007881 units=km normamps=419.0
new line.53092680 phases=3 bus1=82182255002188.1.2.3 bus2=82182325002188.1.2.3 r1=0.195 x1=0.4 length=0.023607 units=km normamps=419.0
new line.53092681 phases=3 bus1=82182335002188.1.2.3 bus2=82182255002188.1.2.3 r1=0.195 x1=0.4 length=0.042996 units=km normamps=419.0
new line.53092682 phases=3 bus1=82182335002188.1.2.3 bus2=82182345002188.1.2.3 r1=0.195 x1=0.4 length=0.028621 units=km normamps=419.0
new line.53092683 phases=3 bus1=82182225002188.1.2.3 bus2=82182235002188.1.2.3 r1=1.551 x1=0.49 length=0.020702 units=km normamps=114.0
new line.53092684 phases=3 bus1=82182235002188.1.2.3 bus2=82182245002188B.1.2.3 r1=1.551 x1=0.49 length=0.021036 units=km normamps=114.0
new line.53092685 phases=3 bus1=82182245002188.1.2.3 bus2=82182255002188.1.2.3 r1=0.195 x1=0.4 length=0.010226 units=km normamps=419.0
new line.53092686 phases=3 bus1=82182155002188.1.2.3 bus2=82182305002188.1.2.3 r1=0.188 x1=0.26 length=0.032728 units=km normamps=525.0
new line.53092687 phases=3 bus1=80501165002188.1.2.3 bus2=80501155002188.1.2.3 r1=0.188 x1=0.26 length=0.047619 units=km normamps=525.0
new line.53092688 phases=3 bus1=80501155002188.1.2.3 bus2=80501115002188.1.2.3 r1=0.188 x1=0.26 length=0.025562 units=km normamps=525.0
new line.53092689 phases=3 bus1=82182305002188.1.2.3 bus2=82182315002188.1.2.3 r1=0.188 x1=0.26 length=0.044017 units=km normamps=525.0
new line.53092690 phases=3 bus1=82182315002188.1.2.3 bus2=82182285002188.1.2.3 r1=0.188 x1=0.26 length=0.03376 units=km normamps=525.0
new line.53092691 phases=3 bus1=82185355002188.1.2.3 bus2=82184095002188.1.2.3 r1=0.975 x1=0.47 length=0.028922 units=km normamps=152.0
new line.53092692 phases=3 bus1=82185355002188.1.2.3 bus2=82185415002188.1.2.3 r1=0.975 x1=0.47 length=0.044138 units=km normamps=152.0
new line.53092693 phases=3 bus1=82185425002188.1.2.3 bus2=82185415002188.1.2.3 r1=0.975 x1=0.47 length=0.02607 units=km normamps=152.0
new line.53092694 phases=3 bus1=82185515002188.1.2.3 bus2=82185425002188.1.2.3 r1=0.975 x1=0.47 length=0.038709 units=km normamps=152.0
new line.53092695 phases=3 bus1=82185525002188.1.2.3 bus2=82185515002188.1.2.3 r1=0.975 x1=0.47 length=0.037935 units=km normamps=152.0
new line.53092696 phases=3 bus1=82185535002188.1.2.3 bus2=82185525002188.1.2.3 r1=0.975 x1=0.47 length=0.038506 units=km normamps=152.0
new line.53092697 phases=3 bus1=82185545002188.1.2.3 bus2=82185535002188.1.2.3 r1=0.975 x1=0.47 length=0.02108 units=km normamps=152.0
new line.53092698 phases=3 bus1=82185555002188.1.2.3 bus2=82185545002188.1.2.3 r1=0.975 x1=0.47 length=0.00636 units=km normamps=152.0
new line.53092699 phases=3 bus1=82185545002188.1.2.3 bus2=82185565002188.1.2.3 r1=0.975 x1=0.47 length=0.013633 units=km normamps=152.0
new line.53092700 phases=3 bus1=82185565002188.1.2.3 bus2=82185575002188.1.2.3 r1=0.975 x1=0.47 length=0.02607 units=km normamps=152.0
new line.53092701 phases=3 bus1=82185575002188.1.2.3 bus2=82185585002188.1.2.3 r1=0.975 x1=0.47 length=0.02554 units=km normamps=152.0
new line.53092702 phases=3 bus1=82185585002188.1.2.3 bus2=82185595002188.1.2.3 r1=0.975 x1=0.47 length=0.022022 units=km normamps=152.0
new line.53092703 phases=3 bus1=82185545002188.1.2.3 bus2=82185655002188.1.2.3 r1=0.975 x1=0.47 length=0.020856 units=km normamps=152.0
new line.53092705 phases=3 bus1=82182655002188.1.2.3 bus2=82182675002188.1.2.3 r1=0.195 x1=0.4 length=0.009304 units=km normamps=419.0
new line.53092706 phases=3 bus1=82182685002188.1.2.3 bus2=82182645002188.1.2.3 r1=0.195 x1=0.4 length=0.05218 units=km normamps=419.0
new line.53092707 phases=3 bus1=82182695002188.1.2.3 bus2=82182685002188.1.2.3 r1=0.195 x1=0.4 length=0.042479 units=km normamps=419.0
new line.53092708 phases=3 bus1=82182635002188.1.2.3 bus2=82182695002188.1.2.3 r1=0.195 x1=0.4 length=0.035619 units=km normamps=419.0
new line.53092709 phases=3 bus1=82182615002188.1.2.3 bus2=82182345002188.1.2.3 r1=0.195 x1=0.4 length=0.019428 units=km normamps=419.0
new line.53092710 phases=3 bus1=82185665002188.1.2.3 bus2=82185655002188.1.2.3 r1=0.975 x1=0.47 length=0.027073 units=km normamps=152.0
new line.53092734 phases=1 bus1=82199975002188.2 bus2=82199965002188.2 r1=1.551 x1=0.47 length=0.041591 units=km normamps=125.0
new line.53092736 phases=1 bus1=82200005002188.2 bus2=82199995002188.2 r1=1.551 x1=0.47 length=0.3187 units=km normamps=125.0
new line.53092737 phases=1 bus1=82200015002188.2 bus2=82200005002188.2 r1=1.551 x1=0.47 length=0.111215 units=km normamps=125.0
new line.53092738 phases=1 bus1=82200035002188.2 bus2=82200025002188.2 r1=2.469 x1=0.49 length=0.045376 units=km normamps=105.0
new line.53092740 phases=1 bus1=82200035002188.2 bus2=82200015002188.2 r1=1.551 x1=0.47 length=0.097921 units=km normamps=125.0
new line.53092741 phases=1 bus1=82200055002188.2 bus2=82200035002188.2 r1=2.469 x1=0.49 length=0.057299 units=km normamps=105.0
new line.53092742 phases=1 bus1=82200065002188.2 bus2=82200055002188.2 r1=2.469 x1=0.49 length=0.140135 units=km normamps=105.0
new line.53092743 phases=1 bus1=82200075002188.2 bus2=82200065002188.2 r1=2.469 x1=0.49 length=0.027599 units=km normamps=105.0
new line.53092744 phases=1 bus1=82200085002188.2 bus2=82200075002188.2 r1=1.551 x1=0.47 length=0.1303 units=km normamps=125.0
new line.53092745 phases=1 bus1=82200095002188.2 bus2=82200085002188.2 r1=1.551 x1=0.47 length=0.070133 units=km normamps=125.0
new line.53092746 phases=1 bus1=82200105002188.2 bus2=82200095002188.2 r1=1.551 x1=0.47 length=0.010838 units=km normamps=125.0
new line.53092748 phases=1 bus1=82200125002188.2 bus2=82200095002188B.2 r1=1.551 x1=0.47 length=0.074888 units=km normamps=125.0
new line.53092749 phases=1 bus1=82200135002188.2 bus2=82200125002188.2 r1=1.551 x1=0.47 length=0.114074 units=km normamps=125.0
new line.53092750 phases=1 bus1=82200145002188.2 bus2=82200135002188B.2 r1=1.551 x1=0.47 length=0.12279 units=km normamps=125.0
new line.53092751 phases=1 bus1=82200155002188.2 bus2=82200145002188.2 r1=1.551 x1=0.47 length=0.166865 units=km normamps=125.0
new line.53092753 phases=1 bus1=82200185002188.2 bus2=82200175002188.2 r1=1.551 x1=0.47 length=0.132081 units=km normamps=125.0
new line.53092755 phases=1 bus1=82200215002188.2 bus2=82200185002188.2 r1=1.551 x1=0.47 length=0.283642 units=km normamps=125.0
new line.53092756 phases=1 bus1=82200225002188.2 bus2=82200215002188.2 r1=1.551 x1=0.47 length=0.041157 units=km normamps=125.0
new line.53092757 phases=1 bus1=82200225002188.2 bus2=82200205002188.2 r1=1.551 x1=0.47 length=0.112587 units=km normamps=125.0
new line.53092758 phases=1 bus1=82200235002188.2 bus2=82200205002188.2 r1=1.551 x1=0.47 length=0.002146 units=km normamps=125.0
new line.53092759 phases=1 bus1=82200245002188.2 bus2=82200255002188.2 r1=1.551 x1=0.47 length=0.051131 units=km normamps=125.0
new line.53092761 phases=1 bus1=82200255002188B.2 bus2=82200225002188.2 r1=1.551 x1=0.47 length=0.082024 units=km normamps=125.0
new line.53092762 phases=1 bus1=82200255002188.2 bus2=82200145002188.2 r1=1.551 x1=0.47 length=0.075474 units=km normamps=125.0
new line.53092763 phases=1 bus1=82200275002188.2 bus2=82200135002188.2 r1=1.551 x1=0.47 length=0.118332 units=km normamps=125.0
new line.53092764 phases=1 bus1=82200285002188.2 bus2=82200275002188.2 r1=1.551 x1=0.47 length=0.128961 units=km normamps=125.0
new line.53092765 phases=1 bus1=82200295002188.2 bus2=82200285002188.2 r1=1.551 x1=0.47 length=0.134245 units=km normamps=125.0
new line.53092767 phases=1 bus1=82200315002188.2 bus2=82200075002188.2 r1=1.551 x1=0.47 length=0.059375 units=km normamps=125.0
new line.53092769 phases=1 bus1=82200335002188.2 bus2=82200055002188.2 r1=1.551 x1=0.47 length=0.230717 units=km normamps=125.0
new line.53092771 phases=1 bus1=82200365002188.2 bus2=82200355002188.2 r1=1.551 x1=0.47 length=0.08752 units=km normamps=125.0
new line.53092772 phases=1 bus1=82200375002188.2 bus2=82200365002188.2 r1=1.551 x1=0.47 length=0.095915 units=km normamps=125.0
new line.53092773 phases=1 bus1=82200385002188.2 bus2=82200375002188.2 r1=1.551 x1=0.47 length=0.149528 units=km normamps=125.0
new line.53092774 phases=1 bus1=82200395002188.2 bus2=82200385002188.2 r1=1.551 x1=0.47 length=0.073897 units=km normamps=125.0
new line.53092775 phases=1 bus1=82200405002188.2 bus2=82200395002188.2 r1=1.551 x1=0.47 length=0.14706 units=km normamps=125.0
new line.53092776 phases=1 bus1=82200415002188.2 bus2=82200405002188.2 r1=1.551 x1=0.47 length=0.166829 units=km normamps=125.0
new line.53092778 phases=1 bus1=82200435002188.2 bus2=82200395002188B.2 r1=1.551 x1=0.47 length=0.125305 units=km normamps=125.0
new line.53092779 phases=1 bus1=82200445002188.2 bus2=82200435002188.2 r1=1.551 x1=0.47 length=0.126533 units=km normamps=125.0
new line.53092780 phases=1 bus1=82200455002188.2 bus2=82200445002188.2 r1=1.551 x1=0.47 length=0.415873 units=km normamps=125.0
new line.53092781 phases=1 bus1=82200465002188.2 bus2=82200455002188.2 r1=1.551 x1=0.47 length=0.170609 units=km normamps=125.0
new line.53092782 phases=1 bus1=82200475002188.2 bus2=82200465002188.2 r1=1.551 x1=0.47 length=0.126947 units=km normamps=125.0
new line.53092783 phases=1 bus1=82200485002188.2 bus2=82200475002188.2 r1=1.551 x1=0.47 length=0.159039 units=km normamps=125.0
new line.53092784 phases=1 bus1=82200495002188.2 bus2=82200485002188.2 r1=1.551 x1=0.47 length=0.132126 units=km normamps=125.0
new line.53092786 phases=1 bus1=82200515002188.2 bus2=82200465002188.2 r1=1.551 x1=0.47 length=0.134074 units=km normamps=125.0
new line.53092787 phases=1 bus1=82200525002188.2 bus2=82200515002188.2 r1=1.551 x1=0.47 length=0.156443 units=km normamps=125.0
new line.53092788 phases=1 bus1=82200535002188.2 bus2=82200525002188.2 r1=1.551 x1=0.47 length=0.112512 units=km normamps=125.0
new line.53092789 phases=1 bus1=82200545002188.2 bus2=82200535002188.2 r1=1.551 x1=0.47 length=0.153742 units=km normamps=125.0
new line.53092790 phases=1 bus1=82200555002188.2 bus2=82200545002188.2 r1=1.551 x1=0.47 length=0.128717 units=km normamps=125.0
new line.53092791 phases=1 bus1=82200565002188.2 bus2=82200555002188.2 r1=1.551 x1=0.47 length=0.178277 units=km normamps=125.0
new line.53092795 phases=3 bus1=82198575002188.1.2.3 bus2=82198565002188.1.2.3 r1=1.551 x1=0.47 length=0.137915 units=km normamps=125.0
new line.53092796 phases=3 bus1=82198585002188.1.2.3 bus2=82198575002188.1.2.3 r1=1.551 x1=0.47 length=0.091003 units=km normamps=125.0
new line.53092797 phases=3 bus1=82198585002188.1.2.3 bus2=82198595002188.1.2.3 r1=1.551 x1=0.47 length=0.106138 units=km normamps=125.0
new line.53092798 phases=3 bus1=82198595002188.1.2.3 bus2=82198605002188.1.2.3 r1=1.551 x1=0.47 length=0.097213 units=km normamps=125.0
new line.53092799 phases=3 bus1=82198605002188.1.2.3 bus2=82198615002188.1.2.3 r1=1.551 x1=0.47 length=0.141422 units=km normamps=125.0
new line.53092800 phases=3 bus1=82198615002188.1.2.3 bus2=82199965002188.1.2.3 r1=1.551 x1=0.47 length=0.055328 units=km normamps=125.0
new line.53092801 phases=3 bus1=82199965002188.1.2.3 bus2=82198625002188.1.2.3 r1=1.551 x1=0.47 length=0.08259 units=km normamps=125.0
new line.53092802 phases=3 bus1=82200585002188.1.2.3 bus2=82198625002188.1.2.3 r1=1.551 x1=0.47 length=0.077596 units=km normamps=125.0
new line.53092803 phases=3 bus1=82200595002188.1.2.3 bus2=82200585002188.1.2.3 r1=1.551 x1=0.47 length=0.083166 units=km normamps=125.0
new line.53092804 phases=3 bus1=82200605002188.1.2.3 bus2=82200595002188.1.2.3 r1=1.551 x1=0.47 length=0.020536 units=km normamps=125.0
new line.53092805 phases=1 bus1=82199995002188.2 bus2=82200585002188B.2 r1=1.551 x1=0.47 length=0.136497 units=km normamps=125.0
new line.53092806 phases=1 bus1=82198595002188.2 bus2=82200615002188.2 r1=1.551 x1=0.47 length=0.142294 units=km normamps=125.0
new line.53092807 phases=1 bus1=82200615002188B.2 bus2=96037545002188.2 r1=1.551 x1=0.47 length=0.018614 units=km normamps=125.0
new line.53092808 phases=1 bus1=82200635002188.2 bus2=82200625002188.2 r1=1.551 x1=0.47 length=0.060559 units=km normamps=125.0
new line.53092809 phases=1 bus1=82200645002188.2 bus2=82200635002188.2 r1=1.551 x1=0.47 length=0.092456 units=km normamps=125.0
new line.53092810 phases=1 bus1=82200665002188.2 bus2=82200645002188.2 r1=1.551 x1=0.47 length=0.063914 units=km normamps=125.0
new line.53092811 phases=1 bus1=82200655002188.2 bus2=82200625002188.2 r1=1.551 x1=0.47 length=0.083839 units=km normamps=125.0
new line.53092812 phases=1 bus1=82200355002188.2 bus2=82200665002188.2 r1=1.551 x1=0.47 length=0.382806 units=km normamps=125.0
new line.53092813 phases=1 bus1=82200675002188.2 bus2=82200355002188.2 r1=1.551 x1=0.47 length=0.086297 units=km normamps=125.0
new line.53092817 phases=1 bus1=82200675002188.2 bus2=82200705002188.2 r1=1.551 x1=0.47 length=0.015367 units=km normamps=125.0
new line.53092818 phases=1 bus1=82187505002188.1 bus2=82198715002188.1 r1=1.551 x1=0.47 length=0.11169 units=km normamps=125.0
new line.53092819 phases=1 bus1=82198715002188.1 bus2=82198725002188.1 r1=1.551 x1=0.47 length=0.112628 units=km normamps=125.0
new line.53092820 phases=1 bus1=82198725002188.1 bus2=82198735002188.1 r1=1.551 x1=0.47 length=0.130214 units=km normamps=125.0
new line.53092822 phases=3 bus1=82183435002188.1.2.3 bus2=82183425002188.1.2.3 r1=0.975 x1=0.47 length=0.038322 units=km normamps=152.0
new line.53092823 phases=3 bus1=82184685002188.1.2.3 bus2=82186905002188.1.2.3 r1=0.613 x1=0.45 length=0.031834 units=km normamps=203.0
new line.53092824 phases=1 bus1=82198055002188B.3 bus2=82234955002188.3 r1=1.551 x1=0.47 length=0.089833 units=km normamps=125.0
new line.53092825 phases=1 bus1=82235005002188.3 bus2=82235015002188.3 r1=1.551 x1=0.47 length=0.087532 units=km normamps=125.0
new line.53092827 phases=1 bus1=82234955002188.3 bus2=82234965002188.3 r1=1.551 x1=0.47 length=0.11679 units=km normamps=125.0
new line.53092828 phases=3 bus1=82183145002188.1.2.3 bus2=82183135002188.1.2.3 r1=1.551 x1=0.49 length=0.025422 units=km normamps=114.0
new line.53092829 phases=3 bus1=82183145002188.1.2.3 bus2=82183165002188.1.2.3 r1=1.551 x1=0.49 length=0.037895 units=km normamps=114.0
new line.53092830 phases=3 bus1=82183415002188.1.2.3 bus2=82183405002188.1.2.3 r1=1.551 x1=0.49 length=0.032543 units=km normamps=114.0
new line.53092831 phases=3 bus1=82183425002188.1.2.3 bus2=82183415002188.1.2.3 r1=1.551 x1=0.49 length=0.036883 units=km normamps=114.0
new line.53092832 phases=3 bus1=82183425002188.1.2.3 bus2=82183455002188.1.2.3 r1=1.551 x1=0.49 length=0.022333 units=km normamps=114.0
new line.53092833 phases=3 bus1=82183785002188.1.2.3 bus2=82183795002188.1.2.3 r1=0.613 x1=0.45 length=0.02947 units=km normamps=203.0
new line.53092834 phases=3 bus1=82183795002188.1.2.3 bus2=82183805002188.1.2.3 r1=0.975 x1=0.47 length=0.028201 units=km normamps=152.0
new line.53092835 phases=3 bus1=82183805002188.1.2.3 bus2=82183815002188.1.2.3 r1=0.975 x1=0.47 length=0.025317 units=km normamps=152.0
new line.53092836 phases=3 bus1=82183815002188.1.2.3 bus2=82183905002188.1.2.3 r1=0.975 x1=0.47 length=0.054034 units=km normamps=152.0
new line.53092837 phases=3 bus1=82185865002188.1.2.3 bus2=82185855002188.1.2.3 r1=0.195 x1=0.4 length=0.030282 units=km normamps=419.0
new line.53092838 phases=3 bus1=82185875002188.1.2.3 bus2=82185865002188B.1.2.3 r1=0.195 x1=0.4 length=0.030282 units=km normamps=419.0
new line.53092839 phases=3 bus1=82185905002188.1.2.3 bus2=82185875002188.1.2.3 r1=1.551 x1=0.49 length=0.019521 units=km normamps=114.0
new line.53092840 phases=3 bus1=82185875002188.1.2.3 bus2=82185915002188.1.2.3 r1=0.195 x1=0.4 length=0.047173 units=km normamps=419.0
new line.53092841 phases=3 bus1=82185915002188.1.2.3 bus2=82185925002188.1.2.3 r1=0.195 x1=0.4 length=0.03887 units=km normamps=419.0
new line.53092842 phases=3 bus1=82185805002188.1.2.3 bus2=82185935002188.1.2.3 r1=0.195 x1=0.4 length=0.026287 units=km normamps=419.0
new line.53092843 phases=3 bus1=82185935002188.1.2.3 bus2=82185955002188.1.2.3 r1=0.195 x1=0.4 length=0.021858 units=km normamps=419.0
new line.53092844 phases=3 bus1=82185955002188.1.2.3 bus2=82185965002188.1.2.3 r1=0.195 x1=0.4 length=0.006219 units=km normamps=419.0
new line.53092845 phases=3 bus1=82185945002188.1.2.3 bus2=82185955002188.1.2.3 r1=0.195 x1=0.4 length=0.005364 units=km normamps=419.0
new line.53092846 phases=3 bus1=82185695002188.1.2.3 bus2=82186095002188.1.2.3 r1=0.975 x1=0.47 length=0.026068 units=km normamps=152.0
new line.53092847 phases=3 bus1=82185965002188.1.2.3 bus2=94618115002188.1.2.3 r1=0.195 x1=0.4 length=0.004787 units=km normamps=419.0
new line.53092848 phases=3 bus1=82185815002188.1.2.3 bus2=82186105002188.1.2.3 r1=0.195 x1=0.4 length=0.021 units=km normamps=419.0
new line.53092849 phases=3 bus1=82186835002188.1.2.3 bus2=82186845002188.1.2.3 r1=0.195 x1=0.4 length=0.031749 units=km normamps=419.0
...

! 3. Chaves Seccionadoras MT
new line.SC_5253992 phases=1 bus1=78864585002188.1 bus2=78864585002188B.1 switch=y r1=1e-4 x1=1e-4 length=0.001 units=km
new line.SC_5287788 phases=1 bus1=82188015002188.1 bus2=82188015002188B.1 switch=y r1=1e-4 x1=1e-4 length=0.001 units=km
new line.SC_5287790 phases=3 bus1=82185865002188.1.2.3 bus2=82185865002188B.1.2.3 switch=y r1=1e-4 x1=1e-4 length=0.001 units=km
new line.SC_5287791 phases=3 bus1=82182275002188.1.2.3 bus2=82182275002188B.1.2.3 switch=y r1=1e-4 x1=1e-4 length=0.001 units=km
new line.SC_5287793 phases=3 bus1=82208865002188.1.2.3 bus2=82208865002188B.1.2.3 switch=y r1=1e-4 x1=1e-4 length=0.001 units=km
new line.SC_5287794 phases=3 bus1=82207695002188.1.2.3 bus2=82207695002188B.1.2.3 switch=y r1=1e-4 x1=1e-4 length=0.001 units=km
new line.SC_5287795 phases=3 bus1=82208965002188.1.2.3 bus2=82208965002188B.1.2.3 switch=y r1=1e-4 x1=1e-4 length=0.001 units=km
new line.SC_5287796 phases=3 bus1=82209015002188.1.2.3 bus2=82209015002188B.1.2.3 switch=y r1=1e-4 x1=1e-4 length=0.001 units=km
new line.SC_5287798 phases=3 bus1=82209235002188.1.2.3 bus2=82209235002188B.1.2.3 switch=y r1=1e-4 x1=1e-4 length=0.001 units=km
new line.SC_5287799 phases=3 bus1=82206765002188.1.2.3 bus2=82206765002188B.1.2.3 switch=y r1=1e-4 x1=1e-4 length=0.001 units=km
new line.SC_5287801 phases=3 bus1=80471845002188.1.2.3 bus2=80471845002188B.1.2.3 switch=y r1=1e-4 x1=1e-4 length=0.001 units=km
new line.SC_5287804 phases=3 bus1=82187015002188.1.2.3 bus2=82187015002188B.1.2.3 switch=y r1=1e-4 x1=1e-4 length=0.001 units=km
new line.SC_5287805 phases=3 bus1=82182675002188.1.2.3 bus2=82182675002188B.1.2.3 switch=y r1=1e-4 x1=1e-4 length=0.001 units=km
new line.SC_5287943 phases=3 bus1=82190765002188.1.2.3 bus2=82190765002188B.1.2.3 switch=y r1=1e-4 x1=1e-4 length=0.001 units=km
new line.SC_5287945 phases=3 bus1=82194925002188.1.2.3 bus2=82194925002188B.1.2.3 switch=y r1=1e-4 x1=1e-4 length=0.001 units=km
new line.SC_5287946 phases=3 bus1=82194305002188.1.2.3 bus2=82194305002188B.1.2.3 switch=y r1=1e-4 x1=1e-4 length=0.001 units=km
new line.SC_5287948 phases=3 bus1=82194355002188.1.2.3 bus2=82194355002188B.1.2.3 switch=y r1=1e-4 x1=1e-4 length=0.001 units=km
new line.SC_5287949 phases=1 bus1=82194445002188.3 bus2=82194445002188B.3 switch=y r1=1e-4 x1=1e-4 length=0.001 units=km
new line.SC_5287950 phases=1 bus1=82195625002188.3 bus2=82195625002188B.3 switch=y r1=1e-4 x1=1e-4 length=0.001 units=km
new line.SC_5287951 phases=1 bus1=82195815002188.3 bus2=82195815002188B.3 switch=y r1=1e-4 x1=1e-4 length=0.001 units=km
new line.SC_5287954 phases=3 bus1=82194895002188.1.2.3 bus2=82194895002188B.1.2.3 switch=y r1=1e-4 x1=1e-4 length=0.001 units=km
new line.SC_5287955 phases=1 bus1=82194065002188.3 bus2=82194065002188B.3 switch=y r1=1e-4 x1=1e-4 length=0.001 units=km
new line.SC_5287957 phases=1 bus1=82193785002188.3 bus2=82193785002188B.3 switch=y r1=1e-4 x1=1e-4 length=0.001 units=km
new line.SC_5287958 phases=3 bus1=82194905002188.1.2.3 bus2=82194905002188B.1.2.3 switch=y r1=1e-4 x1=1e-4 length=0.001 units=km
new line.SC_5287959 phases=1 bus1=82188785002188.3 bus2=82188785002188B.3 switch=y r1=1e-4 x1=1e-4 length=0.001 units=km
new line.SC_5287961 phases=1 bus1=82192855002188.3 bus2=82192855002188B.3 switch=y r1=1e-4 x1=1e-4 length=0.001 units=km
new line.SC_5288027 phases=1 bus1=82192905002188.3 bus2=82192905002188B.3 switch=y r1=1e-4 x1=1e-4 length=0.001 units=km
new line.SC_5288028 phases=3 bus1=82187125002188.1.2.3 bus2=82187125002188B.1.2.3 switch=y r1=1e-4 x1=1e-4 length=0.001 units=km
new line.SC_5288030 phases=1 bus1=82187435002188.1 bus2=82187435002188B.1 switch=y r1=1e-4 x1=1e-4 length=0.001 units=km
new line.SC_5288032 phases=3 bus1=82187565002188.1.2.3 bus2=82187565002188B.1.2.3 switch=y r1=1e-4 x1=1e-4 length=0.001 units=km
new line.SC_5288033 phases=1 bus1=82187605002188.1 bus2=82187605002188B.1 switch=y r1=1e-4 x1=1e-4 length=0.001 units=km
new line.SC_5288037 phases=1 bus1=82188485002188.3 bus2=82188485002188B.3 switch=y r1=1e-4 x1=1e-4 length=0.001 units=km
new line.SC_5288083 phases=1 bus1=82191975002188.3 bus2=82191975002188B.3 switch=y r1=1e-4 x1=1e-4 length=0.001 units=km
new line.SC_5288084 phases=1 bus1=82191995002188.3 bus2=82191995002188B.3 switch=y r1=1e-4 x1=1e-4 length=0.001 units=km
new line.SC_5288085 phases=1 bus1=82192215002188.3 bus2=82192215002188B.3 switch=y r1=1e-4 x1=1e-4 length=0.001 units=km
new line.SC_5288086 phases=1 bus1=82196795002188.3 bus2=82196795002188B.3 switch=y r1=1e-4 x1=1e-4 length=0.001 units=km
new line.SC_5288087 phases=1 bus1=82196805002188.3 bus2=82196805002188B.3 switch=y r1=1e-4 x1=1e-4 length=0.001 units=km
new line.SC_5288089 phases=1 bus1=82191405002188.3 bus2=82191405002188B.3 switch=y r1=1e-4 x1=1e-4 length=0.001 units=km
new line.SC_5288090 phases=1 bus1=82191485002188.3 bus2=82191485002188B.3 switch=y r1=1e-4 x1=1e-4 length=0.001 units=km
new line.SC_5288092 phases=1 bus1=82193125002188.3 bus2=82193125002188B.3 switch=y r1=1e-4 x1=1e-4 length=0.001 units=km
new line.SC_5288093 phases=1 bus1=82192975002188.3 bus2=82192975002188B.3 switch=y r1=1e-4 x1=1e-4 length=0.001 units=km
new line.SC_5288095 phases=1 bus1=82193505002188.3 bus2=82193505002188B.3 switch=y r1=1e-4 x1=1e-4 length=0.001 units=km
new line.SC_5288096 phases=1 bus1=82234315002188.3 bus2=82234315002188B.3 switch=y r1=1e-4 x1=1e-4 length=0.001 units=km
new line.SC_5288097 phases=1 bus1=82193875002188.3 bus2=82193875002188B.3 switch=y r1=1e-4 x1=1e-4 length=0.001 units=km
new line.SC_5288098 phases=1 bus1=82193945002188.3 bus2=82193945002188B.3 switch=y r1=1e-4 x1=1e-4 length=0.001 units=km
new line.SC_5288099 phases=1 bus1=82193515002188.3 bus2=82193515002188B.3 switch=y r1=1e-4 x1=1e-4 length=0.001 units=km
new line.SC_5288101 phases=1 bus1=82197015002188.3 bus2=82197015002188B.3 switch=y r1=1e-4 x1=1e-4 length=0.001 units=km
new line.SC_5288103 phases=1 bus1=82191745002188.3 bus2=82191745002188B.3 switch=y r1=1e-4 x1=1e-4 length=0.001 units=km
new line.SC_5288104 phases=1 bus1=82191805002188.3 bus2=82191805002188B.3 switch=y r1=1e-4 x1=1e-4 length=0.001 units=km
new line.SC_5288105 phases=1 bus1=82198295002188.3 bus2=82198295002188B.3 switch=y r1=1e-4 x1=1e-4 length=0.001 units=km
new line.SC_5288106 phases=1 bus1=82198115002188.3 bus2=82198115002188B.3 switch=y r1=1e-4 x1=1e-4 length=0.001 units=km
new line.SC_5288107 phases=1 bus1=82198155002188.3 bus2=82198155002188B.3 switch=y r1=1e-4 x1=1e-4 length=0.001 units=km
new line.SC_5288108 phases=1 bus1=82198195002188.3 bus2=82198195002188B.3 switch=y r1=1e-4 x1=1e-4 length=0.001 units=km
new line.SC_5288109 phases=1 bus1=82189655002188.1 bus2=82189655002188B.1 switch=y r1=1e-4 x1=1e-4 length=0.001 units=km
new line.SC_5288110 phases=1 bus1=82187965002188.1 bus2=82187965002188B.1 switch=y r1=1e-4 x1=1e-4 length=0.001 units=km
new line.SC_5288111 phases=1 bus1=82186425002188.1 bus2=82186425002188B.1 switch=y r1=1e-4 x1=1e-4 length=0.001 units=km
new line.SC_5288112 phases=1 bus1=82189035002188.1 bus2=82189035002188B.1 switch=y r1=1e-4 x1=1e-4 length=0.001 units=km
new line.SC_5288125 phases=1 bus1=82189125002188.1 bus2=82189125002188B.1 switch=y r1=1e-4 x1=1e-4 length=0.001 units=km
new line.SC_5288126 phases=1 bus1=82194565002188.3 bus2=82194565002188B.3 switch=y r1=1e-4 x1=1e-4 length=0.001 units=km
new line.SC_5288127 phases=1 bus1=82194575002188.3 bus2=82194575002188B.3 switch=y r1=1e-4 x1=1e-4 length=0.001 units=km
new line.SC_5288128 phases=3 bus1=86397995002188.1.2.3 bus2=86397995002188B.1.2.3 switch=y r1=1e-4 x1=1e-4 length=0.001 units=km
new line.SC_5288129 phases=1 bus1=82187765002188.1 bus2=82187765002188B.1 switch=y r1=1e-4 x1=1e-4 length=0.001 units=km
new line.SC_5288130 phases=3 bus1=82184985002188.1.2.3 bus2=82184985002188B.1.2.3 switch=y r1=1e-4 x1=1e-4 length=0.001 units=km
new line.SC_5288131 phases=3 bus1=82184665002188.1.2.3 bus2=82184665002188B.1.2.3 switch=y r1=1e-4 x1=1e-4 length=0.001 units=km
new line.SC_5288132 phases=3 bus1=82184855002188.1.2.3 bus2=82184855002188B.1.2.3 switch=y r1=1e-4 x1=1e-4 length=0.001 units=km
new line.SC_5288133 phases=3 bus1=82182245002188.1.2.3 bus2=82182245002188B.1.2.3 switch=y r1=1e-4 x1=1e-4 length=0.001 units=km
new line.SC_5288135 phases=3 bus1=82202515002188.1.2.3 bus2=82202515002188B.1.2.3 switch=y r1=1e-4 x1=1e-4 length=0.001 units=km
new line.SC_5288138 phases=1 bus1=82200585002188.2 bus2=82200585002188B.2 switch=y r1=1e-4 x1=1e-4 length=0.001 units=km
new line.SC_5288143 phases=3 bus1=82204825002188.1.2.3 bus2=82204825002188B.1.2.3 switch=y r1=1e-4 x1=1e-4 length=0.001 units=km
new line.SC_5288144 phases=3 bus1=94114865002188.1.2.3 bus2=94114865002188B.1.2.3 switch=y r1=1e-4 x1=1e-4 length=0.001 units=km
new line.SC_5288146 phases=3 bus1=82210005002188.1.2.3 bus2=82210005002188B.1.2.3 switch=y r1=1e-4 x1=1e-4 length=0.001 units=km
new line.SC_5288147 phases=3 bus1=82211415002188.1.2.3 bus2=82211415002188B.1.2.3 switch=y r1=1e-4 x1=1e-4 length=0.001 units=km
new line.SC_5288149 phases=3 bus1=82198835002188.1.2.3 bus2=82198835002188B.1.2.3 switch=y r1=1e-4 x1=1e-4 length=0.001 units=km
new line.SC_5288150 phases=3 bus1=82198825002188.1.2.3 bus2=82198825002188B.1.2.3 switch=y r1=1e-4 x1=1e-4 length=0.001 units=km
new line.SC_5288151 phases=3 bus1=82201165002188.1.2.3 bus2=82201165002188B.1.2.3 switch=y r1=1e-4 x1=1e-4 length=0.001 units=km
new line.SC_5288152 phases=3 bus1=82202135002188.1.2.3 bus2=82202135002188B.1.2.3 switch=y r1=1e-4 x1=1e-4 length=0.001 units=km
new line.SC_5288153 phases=3 bus1=82202145002188.1.2.3 bus2=82202145002188B.1.2.3 switch=y r1=1e-4 x1=1e-4 length=0.001 units=km
new line.SC_5288154 phases=3 bus1=82202735002188.1.2.3 bus2=82202735002188B.1.2.3 switch=y r1=1e-4 x1=1e-4 length=0.001 units=km
new line.SC_5288155 phases=3 bus1=82202775002188.1.2.3 bus2=82202775002188B.1.2.3 switch=y r1=1e-4 x1=1e-4 length=0.001 units=km
new line.SC_5288157 phases=3 bus1=82204005002188.1.2.3 bus2=82204005002188B.1.2.3 switch=y r1=1e-4 x1=1e-4 length=0.001 units=km
new line.SC_5288158 phases=3 bus1=82209445002188.1.2.3 bus2=82209445002188B.1.2.3 switch=y r1=1e-4 x1=1e-4 length=0.001 units=km
new line.SC_5288159 phases=3 bus1=82211875002188.1.2.3 bus2=82211875002188B.1.2.3 switch=y r1=1e-4 x1=1e-4 length=0.001 units=km
new line.SC_5288160 phases=1 bus1=82198055002188.3 bus2=82198055002188B.3 switch=y r1=1e-4 x1=1e-4 length=0.001 units=km
new line.SC_5288162 phases=1 bus1=82220515002188.2 bus2=82220515002188B.2 switch=y r1=1e-4 x1=1e-4 length=0.001 units=km
new line.SC_5288174 phases=3 bus1=82219855002188.1.2.3 bus2=82219855002188B.1.2.3 switch=y r1=1e-4 x1=1e-4 length=0.001 units=km
new line.SC_5288177 phases=1 bus1=82219545002188.2 bus2=82219545002188B.2 switch=y r1=1e-4 x1=1e-4 length=0.001 units=km
new line.SC_5288178 phases=1 bus1=82220415002188.2 bus2=82220415002188B.2 switch=y r1=1e-4 x1=1e-4 length=0.001 units=km
new line.SC_5288180 phases=1 bus1=82220665002188.2 bus2=82220665002188B.2 switch=y r1=1e-4 x1=1e-4 length=0.001 units=km
new line.SC_5288201 phases=1 bus1=82194125002188.3 bus2=82194125002188B.3 switch=y r1=1e-4 x1=1e-4 length=0.001 units=km
new line.SC_5288207 phases=1 bus1=82190825002188.3 bus2=82190825002188B.3 switch=y r1=1e-4 x1=1e-4 length=0.001 units=km
new line.SC_5288209 phases=1 bus1=82197995002188.3 bus2=82197995002188B.3 switch=y r1=1e-4 x1=1e-4 length=0.001 units=km
new line.SC_5288213 phases=1 bus1=82188585002188.3 bus2=82188585002188B.3 switch=y r1=1e-4 x1=1e-4 length=0.001 units=km
new line.SC_5288224 phases=3 bus1=82218685002188.1.2.3 bus2=82218685002188B.1.2.3 switch=y r1=1e-4 x1=1e-4 length=0.001 units=km
new line.SC_5288225 phases=3 bus1=82219085002188.1.2.3 bus2=82219085002188B.1.2.3 switch=y r1=1e-4 x1=1e-4 length=0.001 units=km
new line.SC_5288227 phases=3 bus1=82218695002188.1.2.3 bus2=82218695002188B.1.2.3 switch=y r1=1e-4 x1=1e-4 length=0.001 units=km
new line.SC_5302216 phases=1 bus1=83254515002188.3 bus2=83254515002188B.3 switch=y r1=1e-4 x1=1e-4 length=0.001 units=km
new line.SC_5306839 phases=1 bus1=82234875002188.3 bus2=82234875002188B.3 switch=y r1=1e-4 x1=1e-4 length=0.001 units=km
new line.SC_5307892 phases=3 bus1=83545935002188.1.2.3 bus2=83545935002188B.1.2.3 switch=y r1=1e-4 x1=1e-4 length=0.001 units=km
new line.SC_5316162 phases=3 bus1=82209295002188.1.2.3 bus2=82209295002188B.1.2.3 switch=y r1=1e-4 x1=1e-4 length=0.001 units=km
new line.SC_5330353 phases=1 bus1=82187665002188.1 bus2=82187665002188B.1 switch=y r1=1e-4 x1=1e-4 length=0.001 units=km
new line.SC_5340504 phases=3 bus1=85730415002188.1.2.3 bus2=85730415002188B.1.2.3 switch=y r1=1e-4 x1=1e-4 length=0.001 units=km
new line.SC_5448051 phases=3 bus1=82216825002188.1.2.3 bus2=82216825002188B.1.2.3 switch=y r1=1e-4 x1=1e-4 length=0.001 units=km
new line.SC_5482713 phases=3 bus1=82214945002188.1.2.3 bus2=82214945002188B.1.2.3 switch=y r1=1e-4 x1=1e-4 length=0.001 units=km
new line.SC_5487866 phases=1 bus1=82200615002188.2 bus2=82200615002188B.2 switch=y r1=1e-4 x1=1e-4 length=0.001 units=km
new line.SC_5491506 phases=1 bus1=82200395002188.2 bus2=82200395002188B.2 switch=y r1=1e-4 x1=1e-4 length=0.001 units=km
new line.SC_5500607 phases=3 bus1=88566665002188.1.2.3 bus2=88566665002188B.1.2.3 switch=y r1=1e-4 x1=1e-4 length=0.001 units=km
new line.SC_5535284 phases=3 bus1=82212725002188.1.2.3 bus2=82212725002188B.1.2.3 switch=y r1=1e-4 x1=1e-4 length=0.001 units=km
new line.SC_5548240 phases=3 bus1=82184375002188.1.2.3 bus2=82184375002188B.1.2.3 switch=y r1=1e-4 x1=1e-4 length=0.001 units=km
new line.SC_5548241 phases=3 bus1=93776465002188.1.2.3 bus2=93776465002188B.1.2.3 switch=y r1=1e-4 x1=1e-4 length=0.001 units=km
new line.SC_5548242 phases=3 bus1=93776095002188.1.2.3 bus2=93776095002188B.1.2.3 switch=y r1=1e-4 x1=1e-4 length=0.001 units=km
new line.SC_5548243 phases=3 bus1=93291155002188.1.2.3 bus2=93291155002188B.1.2.3 switch=y r1=1e-4 x1=1e-4 length=0.001 units=km
open line.SC_5548243 1
new line.SC_5549556 phases=3 bus1=90072305002188.1.2.3 bus2=90072305002188B.1.2.3 switch=y r1=1e-4 x1=1e-4 length=0.001 units=km
open line.SC_5549556 1
new line.SC_5549557 phases=3 bus1=93776065002188.1.2.3 bus2=93776065002188B.1.2.3 switch=y r1=1e-4 x1=1e-4 length=0.001 units=km
new line.SC_5552985 phases=1 bus1=86440185002188.3 bus2=86440185002188B.3 switch=y r1=1e-4 x1=1e-4 length=0.001 units=km
new line.SC_5572743 phases=3 bus1=83211865002188.1.2.3 bus2=83211865002188B.1.2.3 switch=y r1=1e-4 x1=1e-4 length=0.001 units=km
new line.SC_5575164 phases=3 bus1=90875735002188.1.2.3 bus2=90875735002188B.1.2.3 switch=y r1=1e-4 x1=1e-4 length=0.001 units=km
new line.SC_5586207 phases=1 bus1=82198105002188.3 bus2=82198105002188B.3 switch=y r1=1e-4 x1=1e-4 length=0.001 units=km
new line.SC_5600643 phases=3 bus1=82200835002188.1.2.3 bus2=82200835002188B.1.2.3 switch=y r1=1e-4 x1=1e-4 length=0.001 units=km
new line.SC_5600649 phases=1 bus1=82221205002188.2 bus2=82221205002188B.2 switch=y r1=1e-4 x1=1e-4 length=0.001 units=km
new line.SC_5600651 phases=3 bus1=82196465002188.1.2.3 bus2=82196465002188B.1.2.3 switch=y r1=1e-4 x1=1e-4 length=0.001 units=km
new line.SC_5600652 phases=3 bus1=82187185002188.1.2.3 bus2=82187185002188B.1.2.3 switch=y r1=1e-4 x1=1e-4 length=0.001 units=km
new line.SC_5600653 phases=1 bus1=82200095002188.2 bus2=82200095002188B.2 switch=y r1=1e-4 x1=1e-4 length=0.001 units=km
new line.SC_5600655 phases=1 bus1=82200135002188.2 bus2=82200135002188B.2 switch=y r1=1e-4 x1=1e-4 length=0.001 units=km
new line.SC_5600701 phases=3 bus1=96226645002188.1.2.3 bus2=96226645002188B.1.2.3 switch=y r1=1e-4 x1=1e-4 length=0.001 units=km
new line.SC_5600702 phases=1 bus1=82200255002188.2 bus2=82200255002188B.2 switch=y r1=1e-4 x1=1e-4 length=0.001 units=km
new line.SC_5632178 phases=3 bus1=92605285002188.1.2.3 bus2=92605285002188B.1.2.3 switch=y r1=1e-4 x1=1e-4 length=0.001 units=km
new line.SC_5632180 phases=3 bus1=92605355002188.1.2.3 bus2=92605355002188B.1.2.3 switch=y r1=1e-4 x1=1e-4 length=0.001 units=km
new line.SC_5632181 phases=3 bus1=92605335002188.1.2.3 bus2=92605335002188B.1.2.3 switch=y r1=1e-4 x1=1e-4 length=0.001 units=km
open line.SC_5632181 1
new line.SC_5632182 phases=3 bus1=92605275002188.1.2.3 bus2=92605275002188B.1.2.3 switch=y r1=1e-4 x1=1e-4 length=0.001 units=km
new line.SC_5653952 phases=3 bus1=93349305002188.1.2.3 bus2=93349305002188B.1.2.3 switch=y r1=1e-4 x1=1e-4 length=0.001 units=km
open line.SC_5653952 1
new line.SC_5653981 phases=3 bus1=93349335002188.1.2.3 bus2=93349335002188B.1.2.3 switch=y r1=1e-4 x1=1e-4 length=0.001 units=km
open line.SC_5653981 1
new line.SC_5654721 phases=1 bus1=82191835002188.3 bus2=82191835002188B.3 switch=y r1=1e-4 x1=1e-4 length=0.001 units=km
new line.SC_5655682 phases=3 bus1=93411215002188.1.2.3 bus2=93411215002188B.1.2.3 switch=y r1=1e-4 x1=1e-4 length=0.001 units=km
new line.SC_5655683 phases=3 bus1=93411275002188.1.2.3 bus2=93411275002188B.1.2.3 switch=y r1=1e-4 x1=1e-4 length=0.001 units=km
open line.SC_5655683 1
new line.SC_5658097 phases=3 bus1=82197445002188.1.2.3 bus2=82197445002188B.1.2.3 switch=y r1=1e-4 x1=1e-4 length=0.001 units=km
new line.SC_5665021 phases=3 bus1=93630695002188.1.2.3 bus2=93630695002188B.1.2.3 switch=y r1=1e-4 x1=1e-4 length=0.001 units=km
open line.SC_5665021 1
new line.SC_5665023 phases=3 bus1=93630655002188.1.2.3 bus2=93630655002188B.1.2.3 switch=y r1=1e-4 x1=1e-4 length=0.001 units=km
open line.SC_5665023 1
new line.SC_5701290 phases=3 bus1=94545695002188.1.2.3 bus2=94545695002188B.1.2.3 switch=y r1=1e-4 x1=1e-4 length=0.001 units=km
new line.SC_5701291 phases=3 bus1=94545725002188.1.2.3 bus2=94545725002188B.1.2.3 switch=y r1=1e-4 x1=1e-4 length=0.001 units=km
open line.SC_5701291 1
new line.SC_5701488 phases=3 bus1=94546935002188.1.2.3 bus2=94546935002188B.1.2.3 switch=y r1=1e-4 x1=1e-4 length=0.001 units=km
new line.SC_5701509 phases=3 bus1=94546975002188.1.2.3 bus2=94546975002188B.1.2.3 switch=y r1=1e-4 x1=1e-4 length=0.001 units=km
open line.SC_5701509 1
new line.SC_5701755 phases=3 bus1=94552475002188.1.2.3 bus2=94552475002188B.1.2.3 switch=y r1=1e-4 x1=1e-4 length=0.001 units=km
new line.SC_5703289 phases=3 bus1=94580655002188.1.2.3 bus2=94580655002188B.1.2.3 switch=y r1=1e-4 x1=1e-4 length=0.001 units=km
new line.SC_5703290 phases=3 bus1=94580705002188.1.2.3 bus2=94580705002188B.1.2.3 switch=y r1=1e-4 x1=1e-4 length=0.001 units=km
open line.SC_5703290 1
new line.SC_5703417 phases=3 bus1=94582345002188.1.2.3 bus2=94582345002188B.1.2.3 switch=y r1=1e-4 x1=1e-4 length=0.001 units=km
new line.SC_5703418 phases=3 bus1=94582375002188.1.2.3 bus2=94582375002188B.1.2.3 switch=y r1=1e-4 x1=1e-4 length=0.001 units=km
open line.SC_5703418 1
new line.SC_5703527 phases=3 bus1=94584165002188.1.2.3 bus2=94584165002188B.1.2.3 switch=y r1=1e-4 x1=1e-4 length=0.001 units=km
new line.SC_5703528 phases=3 bus1=94584195002188.1.2.3 bus2=94584195002188B.1.2.3 switch=y r1=1e-4 x1=1e-4 length=0.001 units=km
open line.SC_5703528 1
new line.SC_5704796 phases=3 bus1=94618255002188.1.2.3 bus2=94618255002188B.1.2.3 switch=y r1=1e-4 x1=1e-4 length=0.001 units=km
new line.SC_5704797 phases=3 bus1=94618135002188.1.2.3 bus2=94618135002188B.1.2.3 switch=y r1=1e-4 x1=1e-4 length=0.001 units=km
open line.SC_5704797 1
new line.SC_5708336 phases=3 bus1=94552505002188.1.2.3 bus2=94552505002188B.1.2.3 switch=y r1=1e-4 x1=1e-4 length=0.001 units=km
open line.SC_5708336 1
new line.SC_5723231 phases=3 bus1=95222815002188.1.2.3 bus2=95222815002188B.1.2.3 switch=y r1=1e-4 x1=1e-4 length=0.001 units=km
open line.SC_5723231 1
new line.SC_5724581 phases=3 bus1=95401905002188.1.2.3 bus2=95401905002188B.1.2.3 switch=y r1=1e-4 x1=1e-4 length=0.001 units=km
open line.SC_5724581 1
new line.SC_5724582 phases=3 bus1=95401935002188.1.2.3 bus2=95401935002188B.1.2.3 switch=y r1=1e-4 x1=1e-4 length=0.001 units=km
open line.SC_5724582 1
new line.SC_5724804 phases=3 bus1=95406645002188.1.2.3 bus2=95406645002188B.1.2.3 switch=y r1=1e-4 x1=1e-4 length=0.001 units=km
open line.SC_5724804 1
new line.SC_5727819 phases=3 bus1=82233535002188.1.2.3 bus2=82233535002188B.1.2.3 switch=y r1=1e-4 x1=1e-4 length=0.001 units=km
new line.SC_5729586 phases=3 bus1=95578625002188.1.2.3 bus2=95578625002188B.1.2.3 switch=y r1=1e-4 x1=1e-4 length=0.001 units=km
new line.SC_5736985 phases=3 bus1=82225655002188.1.2.3 bus2=82225655002188B.1.2.3 switch=y r1=1e-4 x1=1e-4 length=0.001 units=km
open line.SC_5736985 1
new line.SC_5736986 phases=3 bus1=95899725002188.1.2.3 bus2=95899725002188B.1.2.3 switch=y r1=1e-4 x1=1e-4 length=0.001 units=km
open line.SC_5736986 1
new line.SC_5737497 phases=1 bus1=95918945002188.3 bus2=95918945002188B.3 switch=y r1=1e-4 x1=1e-4 length=0.001 units=km
new line.SC_5739003 phases=3 bus1=95994485002188.1.2.3 bus2=95994485002188B.1.2.3 switch=y r1=1e-4 x1=1e-4 length=0.001 units=km
new line.SC_5739910 phases=1 bus1=96020815002188.3 bus2=96020815002188B.3 switch=y r1=1e-4 x1=1e-4 length=0.001 units=km
new line.SC_5739911 phases=1 bus1=82194375002188.3 bus2=82194375002188B.3 switch=y r1=1e-4 x1=1e-4 length=0.001 units=km
new line.SC_5740330 phases=1 bus1=96037545002188.2 bus2=96037545002188B.2 switch=y r1=1e-4 x1=1e-4 length=0.001 units=km
new line.SC_5740332 phases=1 bus1=96037585002188.1 bus2=96037585002188B.1 switch=y r1=1e-4 x1=1e-4 length=0.001 units=km
new line.SC_5740335 phases=1 bus1=96037855002188.2 bus2=96037855002188B.2 switch=y r1=1e-4 x1=1e-4 length=0.001 units=km
new line.SC_5741713 phases=3 bus1=96093375002188.1.2.3 bus2=96093375002188B.1.2.3 switch=y r1=1e-4 x1=1e-4 length=0.001 units=km
open line.SC_5741713 1
new line.SC_5741716 phases=3 bus1=96093365002188.1.2.3 bus2=96093365002188B.1.2.3 switch=y r1=1e-4 x1=1e-4 length=0.001 units=km
new line.SC_5743557 phases=1 bus1=96226525002188.3 bus2=96226525002188B.3 switch=y r1=1e-4 x1=1e-4 length=0.001 units=km
new line.SC_5743915 phases=3 bus1=96249535002188.1.2.3 bus2=96249535002188B.1.2.3 switch=y r1=1e-4 x1=1e-4 length=0.001 units=km
new line.SC_5743916 phases=3 bus1=96249525002188.1.2.3 bus2=96249525002188B.1.2.3 switch=y r1=1e-4 x1=1e-4 length=0.001 units=km
new line.SC_5743917 phases=3 bus1=96248105002188.1.2.3 bus2=96248105002188B.1.2.3 switch=y r1=1e-4 x1=1e-4 length=0.001 units=km
new line.SC_5743918 phases=3 bus1=96249495002188.1.2.3 bus2=96249495002188B.1.2.3 switch=y r1=1e-4 x1=1e-4 length=0.001 units=km
new line.SC_5746399 phases=3 bus1=96398375002188.1.2.3 bus2=96398375002188B.1.2.3 switch=y r1=1e-4 x1=1e-4 length=0.001 units=km
new line.SC_5747411 phases=1 bus1=96226515002188.3 bus2=96226515002188B.3 switch=y r1=1e-4 x1=1e-4 length=0.001 units=km
new line.SC_5750195 phases=3 bus1=96586555002188.1.2.3 bus2=96586555002188B.1.2.3 switch=y r1=1e-4 x1=1e-4 length=0.001 units=km
new line.SC_5751585 phases=1 bus1=96642045002188.1 bus2=96642045002188B.1 switch=y r1=1e-4 x1=1e-4 length=0.001 units=km
new line.SC_5756282 phases=3 bus1=96895705002188.1.2.3 bus2=96895705002188B.1.2.3 switch=y r1=1e-4 x1=1e-4 length=0.001 units=km
new line.SC_5756283 phases=3 bus1=96895715002188.1.2.3 bus2=96895715002188B.1.2.3 switch=y r1=1e-4 x1=1e-4 length=0.001 units=km
open line.SC_5756283 1
new line.SC_5757022 phases=3 bus1=96920895002188.1.2.3 bus2=96920895002188B.1.2.3 switch=y r1=1e-4 x1=1e-4 length=0.001 units=km
open line.SC_5757022 1
new line.SC_5757023 phases=3 bus1=96920885002188.1.2.3 bus2=96920885002188B.1.2.3 switch=y r1=1e-4 x1=1e-4 length=0.001 units=km
open line.SC_5757023 1
new line.SC_5762244 phases=3 bus1=97152315002188.1.2.3 bus2=97152315002188B.1.2.3 switch=y r1=1e-4 x1=1e-4 length=0.001 units=km
new line.SC_5771558 phases=3 bus1=82186935002188.1.2.3 bus2=82186935002188B.1.2.3 switch=y r1=1e-4 x1=1e-4 length=0.001 units=km
new line.SC_5781536 phases=3 bus1=97832435002188.1.2.3 bus2=97832435002188B.1.2.3 switch=y r1=1e-4 x1=1e-4 length=0.001 units=km
open line.SC_5781536 1
new line.SC_5781537 phases=3 bus1=97832425002188.1.2.3 bus2=97832425002188B.1.2.3 switch=y r1=1e-4 x1=1e-4 length=0.001 units=km
new line.SC_5782637 phases=3 bus1=97876785002188.1.2.3 bus2=97876785002188B.1.2.3 switch=y r1=1e-4 x1=1e-4 length=0.001 units=km
open line.SC_5782637 1
new line.SC_5782639 phases=3 bus1=97876755002188.1.2.3 bus2=97876755002188B.1.2.3 switch=y r1=1e-4 x1=1e-4 length=0.001 units=km
new line.SC_5782975 phases=3 bus1=82202405002188.1.2.3 bus2=82202405002188B.1.2.3 switch=y r1=1e-4 x1=1e-4 length=0.001 units=km
new line.SC_5786154 phases=3 bus1=82185595002188.1.2.3 bus2=82185595002188B.1.2.3 switch=y r1=1e-4 x1=1e-4 length=0.001 units=km
new line.SC_SA0002814 phases=3 bus1=SA0002814.1.2.3 bus2=SA0002814B.1.2.3 switch=y r1=1e-4 x1=1e-4 length=0.001 units=km
new line.SC_SA0002819 phases=3 bus1=SA0002819.1.2.3 bus2=SA0002819B.1.2.3 switch=y r1=1e-4 x1=1e-4 length=0.001 units=km
new line.SC_SA0002820 phases=3 bus1=SA0002820.1.2.3 bus2=SA0002820B.1.2.3 switch=y r1=1e-4 x1=1e-4 length=0.001 units=km
new line.SC_SA0002817 phases=3 bus1=SA0002817.1.2.3 bus2=SA0002817B.1.2.3 switch=y r1=1e-4 x1=1e-4 length=0.001 units=km
new line.SC_SA0002818 phases=3 bus1=SA0002818.1.2.3 bus2=SA0002818B.1.2.3 switch=y r1=1e-4 x1=1e-4 length=0.001 units=km
new line.SC_DA0000426 phases=3 bus1=I888888103515002188.1.2.3 bus2=I888888103515002188B.1.2.3 switch=y r1=1e-4 x1=1e-4 length=0.001 units=km

! 4. Bancos de Capacitores MT
new capacitor.5287786 phases=3 bus1=82185905002188.1.2.3 conn=wye kv=13.8 kvar=1200.0

! 5. Transformadores MT/BT de Distribuicao
new transformer.UNTRMT_5253946 phases=1 windings=3 %r=2.08 xhl=1.39 xht=1.39 xlt=0.97 kva=10.0
~ wdg=1 bus=78864635002188.1 conn=wye kv=7.96 kva=10.0 %r=1.04
~ wdg=2 bus=78864635253946.1.0 conn=wye kv=0.22 kva=10.0 %r=1.04
~ wdg=3 bus=78864635253946.0.2 conn=wye kv=0.22 kva=10.0 %r=1.04

new transformer.UNTRMT_5253947 phases=1 windings=3 %r=2.08 xhl=1.39 xht=1.39 xlt=0.97 kva=10.0
~ wdg=1 bus=78864675002188.1 conn=wye kv=7.96 kva=10.0 %r=1.04
~ wdg=2 bus=78864675253947.1.0 conn=wye kv=0.22 kva=10.0 %r=1.04
~ wdg=3 bus=78864675253947.0.2 conn=wye kv=0.22 kva=10.0 %r=1.04

new transformer.UNTRMT_5287808 phases=1 windings=3 %r=2.08 xhl=1.39 xht=1.39 xlt=0.97 kva=10.0
~ wdg=1 bus=82191875002188.3 conn=wye kv=7.96 kva=10.0 %r=1.04
~ wdg=2 bus=82191875287808.1.0 conn=wye kv=0.22 kva=10.0 %r=1.04
~ wdg=3 bus=82191875287808.0.2 conn=wye kv=0.22 kva=10.0 %r=1.04

new transformer.UNTRMT_5287809 phases=1 windings=3 %r=2.08 xhl=1.39 xht=1.39 xlt=0.97 kva=10.0
~ wdg=1 bus=82191905002188.3 conn=wye kv=7.96 kva=10.0 %r=1.04
~ wdg=2 bus=82191905287809.1.0 conn=wye kv=0.22 kva=10.0 %r=1.04
~ wdg=3 bus=82191905287809.0.2 conn=wye kv=0.22 kva=10.0 %r=1.04

new transformer.UNTRMT_5287810 phases=1 windings=3 %r=2.08 xhl=1.39 xht=1.39 xlt=0.97 kva=10.0
~ wdg=1 bus=82191925002188.3 conn=wye kv=7.96 kva=10.0 %r=1.04
~ wdg=2 bus=82191925287810.1.0 conn=wye kv=0.22 kva=10.0 %r=1.04
~ wdg=3 bus=82191925287810.0.2 conn=wye kv=0.22 kva=10.0 %r=1.04

new transformer.UNTRMT_5287811 phases=1 windings=3 %r=2.08 xhl=1.39 xht=1.39 xlt=0.97 kva=10.0
~ wdg=1 bus=82192615002188.3 conn=wye kv=7.96 kva=10.0 %r=1.04
~ wdg=2 bus=82192615287811.1.0 conn=wye kv=0.22 kva=10.0 %r=1.04
~ wdg=3 bus=82192615287811.0.2 conn=wye kv=0.22 kva=10.0 %r=1.04

new transformer.UNTRMT_5287812 phases=1 windings=3 %r=1.83 xhl=1.71 xht=1.71 xlt=1.2 kva=25.0
~ wdg=1 bus=82194475002188.3 conn=wye kv=7.96 kva=25.0 %r=0.915
~ wdg=2 bus=82194475287812.1.0 conn=wye kv=0.22 kva=25.0 %r=0.915
~ wdg=3 bus=82194475287812.0.2 conn=wye kv=0.22 kva=25.0 %r=0.915

new transformer.UNTRMT_5287813 phases=1 windings=3 %r=2.08 xhl=1.39 xht=1.39 xlt=0.97 kva=10.0
~ wdg=1 bus=82194515002188.3 conn=wye kv=7.96 kva=10.0 %r=1.04
~ wdg=2 bus=82194515287813.1.0 conn=wye kv=0.22 kva=10.0 %r=1.04
~ wdg=3 bus=82194515287813.0.2 conn=wye kv=0.22 kva=10.0 %r=1.04

new transformer.UNTRMT_5287814 phases=1 windings=3 %r=2.08 xhl=1.39 xht=1.39 xlt=0.97 kva=10.0
~ wdg=1 bus=82194555002188.3 conn=wye kv=7.96 kva=10.0 %r=1.04
~ wdg=2 bus=82194555287814.1.0 conn=wye kv=0.22 kva=10.0 %r=1.04
~ wdg=3 bus=82194555287814.0.2 conn=wye kv=0.22 kva=10.0 %r=1.04

new transformer.UNTRMT_5287815 phases=1 windings=3 %r=2.08 xhl=1.39 xht=1.39 xlt=0.97 kva=10.0
~ wdg=1 bus=82190615002188.3 conn=wye kv=7.96 kva=10.0 %r=1.04
~ wdg=2 bus=82190615287815.1.0 conn=wye kv=0.22 kva=10.0 %r=1.04
~ wdg=3 bus=82190615287815.0.2 conn=wye kv=0.22 kva=10.0 %r=1.04

new transformer.UNTRMT_5287816 phases=1 windings=3 %r=2.08 xhl=1.39 xht=1.39 xlt=0.97 kva=10.0
~ wdg=1 bus=82198025002188.3 conn=wye kv=7.96 kva=10.0 %r=1.04
~ wdg=2 bus=82198025287816.1.0 conn=wye kv=0.22 kva=10.0 %r=1.04
~ wdg=3 bus=82198025287816.0.2 conn=wye kv=0.22 kva=10.0 %r=1.04

new transformer.UNTRMT_5287817 phases=1 windings=3 %r=2.08 xhl=1.39 xht=1.39 xlt=0.97 kva=10.0
~ wdg=1 bus=82198085002188.3 conn=wye kv=7.96 kva=10.0 %r=1.04
~ wdg=2 bus=82198085287817.1.0 conn=wye kv=0.22 kva=10.0 %r=1.04
~ wdg=3 bus=82198085287817.0.2 conn=wye kv=0.22 kva=10.0 %r=1.04

new transformer.UNTRMT_5287818 phases=1 windings=3 %r=1.97 xhl=1.55 xht=1.55 xlt=1.08 kva=15.0
~ wdg=1 bus=82194965002188.3 conn=wye kv=7.96 kva=15.0 %r=0.985
~ wdg=2 bus=82194965287818.1.0 conn=wye kv=0.22 kva=15.0 %r=0.985
~ wdg=3 bus=82194965287818.0.2 conn=wye kv=0.22 kva=15.0 %r=0.985

new transformer.UNTRMT_5287819 phases=1 windings=3 %r=2.08 xhl=1.39 xht=1.39 xlt=0.97 kva=10.0
~ wdg=1 bus=82194395002188.3 conn=wye kv=7.96 kva=10.0 %r=1.04
~ wdg=2 bus=82194395287819.1.0 conn=wye kv=0.22 kva=10.0 %r=1.04
~ wdg=3 bus=82194395287819.0.2 conn=wye kv=0.22 kva=10.0 %r=1.04

new transformer.UNTRMT_5287820 phases=1 windings=3 %r=2.08 xhl=1.39 xht=1.39 xlt=0.97 kva=10.0
~ wdg=1 bus=82194425002188.3 conn=wye kv=7.96 kva=10.0 %r=1.04
~ wdg=2 bus=82194425287820.1.0 conn=wye kv=0.22 kva=10.0 %r=1.04
~ wdg=3 bus=82194425287820.0.2 conn=wye kv=0.22 kva=10.0 %r=1.04

new transformer.UNTRMT_5287821 phases=1 windings=3 %r=1.97 xhl=1.55 xht=1.55 xlt=1.08 kva=15.0
~ wdg=1 bus=82196875002188.3 conn=wye kv=7.96 kva=15.0 %r=0.985
~ wdg=2 bus=82196875287821.1.0 conn=wye kv=0.22 kva=15.0 %r=0.985
~ wdg=3 bus=82196875287821.0.2 conn=wye kv=0.22 kva=15.0 %r=0.985

new transformer.UNTRMT_5287822 phases=1 windings=3 %r=1.83 xhl=1.71 xht=1.71 xlt=1.2 kva=25.0
~ wdg=1 bus=82195705002188.3 conn=wye kv=7.96 kva=25.0 %r=0.915
~ wdg=2 bus=82195705287822.1.0 conn=wye kv=0.22 kva=25.0 %r=0.915
~ wdg=3 bus=82195705287822.0.2 conn=wye kv=0.22 kva=25.0 %r=0.915

new transformer.UNTRMT_5287823 phases=1 windings=3 %r=1.83 xhl=1.71 xht=1.71 xlt=1.2 kva=25.0
~ wdg=1 bus=82195735002188.3 conn=wye kv=7.96 kva=25.0 %r=0.915
~ wdg=2 bus=82195735287823.1.0 conn=wye kv=0.22 kva=25.0 %r=0.915
~ wdg=3 bus=82195735287823.0.2 conn=wye kv=0.22 kva=25.0 %r=0.915

new transformer.UNTRMT_5287824 phases=1 windings=3 %r=1.97 xhl=1.55 xht=1.55 xlt=1.08 kva=15.0
~ wdg=1 bus=82195805002188.3 conn=wye kv=7.96 kva=15.0 %r=0.985
~ wdg=2 bus=82195805287824.1.0 conn=wye kv=0.22 kva=15.0 %r=0.985
~ wdg=3 bus=82195805287824.0.2 conn=wye kv=0.22 kva=15.0 %r=0.985

new transformer.UNTRMT_5287825 phases=1 windings=3 %r=1.75 xhl=1.79 xht=1.79 xlt=1.25 kva=37.0
~ wdg=1 bus=82195875002188.3 conn=wye kv=7.96 kva=37.0 %r=0.875
~ wdg=2 bus=82195875287825.1.0 conn=wye kv=0.22 kva=37.0 %r=0.875
~ wdg=3 bus=82195875287825.0.2 conn=wye kv=0.22 kva=37.0 %r=0.875

new transformer.UNTRMT_5287826 phases=1 windings=3 %r=1.75 xhl=1.79 xht=1.79 xlt=1.25 kva=37.0
~ wdg=1 bus=82192655002188.3 conn=wye kv=7.96 kva=37.0 %r=0.875
~ wdg=2 bus=82192655287826.1.0 conn=wye kv=0.22 kva=37.0 %r=0.875
~ wdg=3 bus=82192655287826.0.2 conn=wye kv=0.22 kva=37.0 %r=0.875

new transformer.UNTRMT_5287827 phases=1 windings=3 %r=2.08 xhl=1.39 xht=1.39 xlt=0.97 kva=10.0
~ wdg=1 bus=82192695002188.3 conn=wye kv=7.96 kva=10.0 %r=1.04
~ wdg=2 bus=82192695287827.1.0 conn=wye kv=0.22 kva=10.0 %r=1.04
~ wdg=3 bus=82192695287827.0.2 conn=wye kv=0.22 kva=10.0 %r=1.04

new transformer.UNTRMT_5287828 phases=1 windings=3 %r=1.97 xhl=1.55 xht=1.55 xlt=1.08 kva=15.0
~ wdg=1 bus=82192725002188.3 conn=wye kv=7.96 kva=15.0 %r=0.985
~ wdg=2 bus=82192725287828.1.0 conn=wye kv=0.22 kva=15.0 %r=0.985
~ wdg=3 bus=82192725287828.0.2 conn=wye kv=0.22 kva=15.0 %r=0.985

new transformer.UNTRMT_5287829 phases=1 windings=3 %r=1.97 xhl=1.55 xht=1.55 xlt=1.08 kva=15.0
~ wdg=1 bus=82192755002188.3 conn=wye kv=7.96 kva=15.0 %r=0.985
~ wdg=2 bus=82192755287829.1.0 conn=wye kv=0.22 kva=15.0 %r=0.985
~ wdg=3 bus=82192755287829.0.2 conn=wye kv=0.22 kva=15.0 %r=0.985

new transformer.UNTRMT_5287830 phases=1 windings=3 %r=1.83 xhl=1.71 xht=1.71 xlt=1.2 kva=25.0
~ wdg=1 bus=82194005002188.3 conn=wye kv=7.96 kva=25.0 %r=0.915
~ wdg=2 bus=82194005287830.1.0 conn=wye kv=0.22 kva=25.0 %r=0.915
~ wdg=3 bus=82194005287830.0.2 conn=wye kv=0.22 kva=25.0 %r=0.915

new transformer.UNTRMT_5287831 phases=1 windings=3 %r=2.08 xhl=1.39 xht=1.39 xlt=0.97 kva=10.0
~ wdg=1 bus=82194055002188.3 conn=wye kv=7.96 kva=10.0 %r=1.04
~ wdg=2 bus=82194055287831.1.0 conn=wye kv=0.22 kva=10.0 %r=1.04
~ wdg=3 bus=82194055287831.0.2 conn=wye kv=0.22 kva=10.0 %r=1.04

new transformer.UNTRMT_5287832 phases=1 windings=3 %r=1.97 xhl=1.55 xht=1.55 xlt=1.08 kva=15.0
...